#
#	File Created by: Spartan `02 Export
#

@<TRIPOS>MOLECULE
C:\Users\alexg\OneDrive\Escritorio\Proteina_y_ligando\prueba cox\prueba spartan hartree fock\aas.mo2
21 21
SMALL
USER_CHARGES


@<TRIPOS>ATOM
    1   C1         0.867451545    -0.376312899    -1.783563720     C.2   1  Molecule001    0.801243
    2   O2         1.883889541    -0.146164350    -1.162648701     O.2   1  Molecule001   -0.448568
    3   O3        -0.363130465    -0.647000852    -1.162692676     O.3   1  Molecule001   -0.491055
    4   C4         0.711598388    -0.451927371    -3.310876917     C.3   1  Molecule001   -0.503329
    5   H5         1.672409191    -0.277496291    -3.784215795       H   1  Molecule001    0.121764
    6   H6         0.000413076     0.300180627    -3.640408929       H   1  Molecule001    0.144323
    7   H7         0.337844165    -1.431659427    -3.595271136       H   1  Molecule001    0.134434
    8   C8        -0.327658302    -0.538296413     0.243040307    C.ar   1  Molecule001    0.483886
    9   C9        -0.428347773    -0.461561938     3.028239407    C.ar   1  Molecule001   -0.128281
   10   C10       -0.376225162    -1.719003861     0.981984234    C.ar   1  Molecule001   -0.217250
   11   C11       -0.338335559     0.695929616     0.906921058    C.ar   1  Molecule001   -0.378355
   12   C12       -0.385046542     0.712787713     2.298785846    C.ar   1  Molecule001    0.050385
   13   C13       -0.426327693    -1.680627046     2.364755432    C.ar   1  Molecule001    0.005287
   14   H14       -0.375547021    -2.663553691     0.453885220       H   1  Molecule001    0.098879
   15   H15       -0.390019642     1.674421969     2.798430113       H   1  Molecule001    0.056692
   16   H16       -0.463083322    -2.605889432     2.926963872       H   1  Molecule001    0.065544
   17   H17       -0.465873196    -0.428688299     4.109029612       H   1  Molecule001    0.076197
   18   C18       -0.306250976     2.041976513     0.206235623     C.2   1  Molecule001    0.800536
   19   O19       -0.317484080     3.119729453     0.777788694     O.2   1  Molecule001   -0.445405
   20   O20       -0.267358742     1.968643587    -1.183313751     O.3   1  Molecule001   -0.539965
   21   H21       -0.242919072     2.914512390    -1.473067951       H   1  Molecule001    0.313039


@<TRIPOS>BOND
    1      1      2    2
    2      1      3    1
    3      4      5    1
    4      4      6    1
    5      4      7    1
    6      1      4    1
    7      8     11    ar
    8     11     12    ar
    9      9     12    ar
   10      9     13    ar
   11     10     13    ar
   12      8     10    ar
   13     12     15    1
   14     13     16    1
   15      9     17    1
   16     10     14    1
   17      3      8    1
   18     18     19    2
   19     18     20    1
   20     20     21    1
   21     11     18    1
